GEOS-Chem Support Team
geos-chem-support@as.harvard.edu
13 Jan 2014

This directory contains input files for the standard simulation as of
the GEOS-Chem version 9-02.

The restart file was obtained from the GEOS-5 standard directory.